/*--------------------------------*- C++ -*----------------------------------*\
| =========                 |                                                 |
| \\      /  F ield         | OpenFOAM: The Open Source CFD Toolbox           |
|  \\    /   O peration     | Version:  2.3.0                                 |
|   \\  /    A nd           | Web:      www.OpenFOAM.org                      |
|    \\/     M anipulation  |                                                 |
\*---------------------------------------------------------------------------*/
FoamFile
{
    version     2.0;
    format      ascii;
    class       dictionary;
    location    "system";
    object      fvSolution;
}
// * * * * * * * * * * * * * * * * * * * * * * * * * * * * * * * * * * * * * //

solvers
{
    p_rgh
    {/*
        solver          GAMG;
        preconditioner  DILU;
        mergeLevels     1;
        smoother GaussSeidel;
        agglomerator faceAreaPair;
        nCellsInCoarsestLevel 100;
        tolerance       1e-6;
        relTol          0.001;
        nPreSweeps   0;
        nPostSweeps    2;
*/
        solver          PCG;
        preconditioner  DIC;
        tolerance       1e-12;
        relTol          0.001;

    }
/*    "(T)"
    {
        solver          GAMG;
        preconditioner  DILU;
        mergeLevels     1;
        smoother GaussSeidel;
        agglomerator faceAreaPair;
        nCellsInCoarsestLevel 100;
        tolerance       1e-6;
        relTol          0.001;
        minIter         1;
        nPreSweeps   0;
        nPostSweeps    2;
    }

    "(U)"
    {
        solver          GAMG;
        preconditioner  DILU;
        mergeLevels     1;
        smoother GaussSeidel;
        agglomerator faceAreaPair;
        nCellsInCoarsestLevel 100;
        tolerance       1e-8;
        relTol          0.0;
        nPreSweeps   0;
        nPostSweeps    2;
    }   
*/
    "(U)"/*|k|epsilon|R)*/
    {
        solver          PCG;
        preconditioner  DIC;
        tolerance       1e-12;
        relTol          0.001;
    }
    "(T)"
    {
	solver          PBiCG;
        preconditioner  DILU;
        tolerance       1e-12;
        relTol          0.001;
    }

}

SIMPLE
{
    nNonOrthogonalCorrectors 0;
    pRefCell        0;
    pRefValue       0;

    residualControl
    {
        p_rgh           1e-12;
        U               1e-12;
        T               1e-12;

        // possibly check turbulence fields
       // "(k|epsilon|omega)" 1e-3;
    }
}

relaxationFactors
{
    fields
    {
        p_rgh           0.7;
    }
    equations
    {
        U               0.3;
        T               0.5;
       // "(k|epsilon|R)" 0.7;
    }
}


// ************************************************************************* //
