/*--------------------------------*- C++ -*----------------------------------*\
| =========                 |                                                 |
| \\      /  F ield         | OpenFOAM: The Open Source CFD Toolbox           |
|  \\    /   O peration     | Version:  2.3.0                                 |
|   \\  /    A nd           | Web:      www.OpenFOAM.org                      |
|    \\/     M anipulation  |                                                 |
\*---------------------------------------------------------------------------*/
FoamFile
{
    version     2.0;
    format      ascii;
    class       polyBoundaryMesh;
    location    "constant/polyMesh";
    object      boundary;
}
// * * * * * * * * * * * * * * * * * * * * * * * * * * * * * * * * * * * * * //

5
(
    top
    {
        type            wall;
        inGroups        1(wall);
        nFaces          102;
        startFace       5988;
    }
    bottom
    {
        type            wall;
        inGroups        1(wall);
        nFaces          102;
        startFace       6090;
    }
    frontAndBack
    {
        type            empty;
        inGroups        1(empty);
        nFaces          6120;
        startFace       6192;
    }
    left_cyc
    {
        type            cyclic;
        inGroups        1(cyclic);
        nFaces          30;
        startFace       12312;
        matchTolerance  0.0001;
        transform       unknown;
        neighbourPatch  right_cyc;
    }
    right_cyc
    {
        type            cyclic;
        inGroups        1(cyclic);
        nFaces          30;
        startFace       12342;
        matchTolerance  0.0001;
        transform       unknown;
        neighbourPatch  left_cyc;
    }
)

// ************************************************************************* //
