/*--------------------------------*- C++ -*----------------------------------*\
| =========                 |                                                 |
| \\      /  F ield         | OpenFOAM: The Open Source CFD Toolbox           |
|  \\    /   O peration     | Version:  2.3.0                                 |
|   \\  /    A nd           | Web:      www.OpenFOAM.org                      |
|    \\/     M anipulation  |                                                 |
\*---------------------------------------------------------------------------*/
FoamFile
{
    version     2.0;
    format      ascii;
    class       polyBoundaryMesh;
    location    "constant/polyMesh";
    object      boundary;
}
// * * * * * * * * * * * * * * * * * * * * * * * * * * * * * * * * * * * * * //

7
(
    top
    {
        type            wall;
        inGroups        1(wall);
        nFaces          12;
        startFace       356;
    }
    bottom
    {
        type            wall;
        inGroups        1(wall);
        nFaces          13;
        startFace       368;
    }
    frontAndBack
    {
        type            empty;
        inGroups        1(empty);
        nFaces          384;
        startFace       381;
    }
    left_cyc
    {
        type            cyclic;
        inGroups        1(cyclic);
        nFaces          0;
        startFace       765;
        matchTolerance  0.0001;
        transform       unknown;
        neighbourPatch  right_cyc;
    }
    right_cyc
    {
        type            cyclic;
        inGroups        1(cyclic);
        nFaces          0;
        startFace       765;
        matchTolerance  0.0001;
        transform       unknown;
        neighbourPatch  left_cyc;
    }
    procBoundary0to1
    {
        type            processor;
        inGroups        1(processor);
        nFaces          16;
        startFace       765;
        matchTolerance  0.0001;
        transform       unknown;
        myProcNo        0;
        neighbProcNo    1;
    }
    procBoundary0to3throughleft_cyc
    {
        type            processorCyclic;
        inGroups        1(processor);
        nFaces          15;
        startFace       781;
        matchTolerance  0.0001;
        transform       unknown;
        myProcNo        0;
        neighbProcNo    3;
        referPatch      left_cyc;
    }
)

// ************************************************************************* //
