/*--------------------------------*- C++ -*----------------------------------*\
| =========                 |                                                 |
| \\      /  F ield         | OpenFOAM: The Open Source CFD Toolbox           |
|  \\    /   O peration     | Version:  2.3.0                                 |
|   \\  /    A nd           | Web:      www.OpenFOAM.org                      |
|    \\/     M anipulation  |                                                 |
\*---------------------------------------------------------------------------*/
FoamFile
{
    version     2.0;
    format      ascii;
    class       polyBoundaryMesh;
    location    "constant/polyMesh";
    object      boundary;
}
// * * * * * * * * * * * * * * * * * * * * * * * * * * * * * * * * * * * * * //

7
(
    top
    {
        type            wall;
        inGroups        1(wall);
        nFaces          13;
        startFace       354;
    }
    bottom
    {
        type            wall;
        inGroups        1(wall);
        nFaces          12;
        startFace       367;
    }
    frontAndBack
    {
        type            empty;
        inGroups        1(empty);
        nFaces          382;
        startFace       379;
    }
    left_cyc
    {
        type            cyclic;
        inGroups        1(cyclic);
        nFaces          0;
        startFace       761;
        matchTolerance  0.0001;
        transform       unknown;
        neighbourPatch  right_cyc;
    }
    right_cyc
    {
        type            cyclic;
        inGroups        1(cyclic);
        nFaces          0;
        startFace       761;
        matchTolerance  0.0001;
        transform       unknown;
        neighbourPatch  left_cyc;
    }
    procBoundary3to0throughright_cyc
    {
        type            processorCyclic;
        inGroups        1(processor);
        nFaces          15;
        startFace       761;
        matchTolerance  0.0001;
        transform       unknown;
        myProcNo        3;
        neighbProcNo    0;
        referPatch      right_cyc;
    }
    procBoundary3to2
    {
        type            processor;
        inGroups        1(processor);
        nFaces          16;
        startFace       776;
        matchTolerance  0.0001;
        transform       unknown;
        myProcNo        3;
        neighbProcNo    2;
    }
)

// ************************************************************************* //
