/*--------------------------------*- C++ -*----------------------------------*\
| =========                 |                                                 |
| \\      /  F ield         | OpenFOAM: The Open Source CFD Toolbox           |
|  \\    /   O peration     | Version:  2.3.0                                 |
|   \\  /    A nd           | Web:      www.OpenFOAM.org                      |
|    \\/     M anipulation  |                                                 |
\*---------------------------------------------------------------------------*/
FoamFile
{
    version     2.0;
    format      ascii;
    class       volScalarField;
    object      p_rgh;
}
// * * * * * * * * * * * * * * * * * * * * * * * * * * * * * * * * * * * * * //

dimensions      [0 2 -2 0 0 0 0];

internalField   uniform 0;

boundaryField
{
    top
    {

	type		zeroGradient;
/*
        type            fixedFluxPressure;
        rho             rhok;
        value           uniform 0;
*/
    }

    bottom
    {
        type            fixedFluxPressure;
        rho             rhok;
        value           uniform 0;
    }

    left_cyc
    {
        type		cyclic;
    }

    right_cyc
    {
        type		cyclic;
    }

    frontAndBack
    {
        type            empty;
    }
}

// ************************************************************************* //
